Version 4
SHEET 1 1616 792
WIRE 208 -16 -16 -16
WIRE 704 -16 208 -16
WIRE 912 -16 704 -16
WIRE 1136 -16 912 -16
WIRE 1328 -16 1136 -16
WIRE -16 80 -16 -16
WIRE 80 80 32 80
WIRE 208 80 208 -16
WIRE 208 80 160 80
WIRE 704 80 704 -16
WIRE 800 80 752 80
WIRE 912 80 912 -16
WIRE 912 80 880 80
WIRE 1328 96 1328 -16
WIRE -16 192 -16 144
WIRE -16 192 -416 192
WIRE 1136 208 1136 -16
WIRE -416 224 -416 192
WIRE 704 272 704 144
WIRE 896 272 704 272
WIRE -16 288 -16 192
WIRE 208 288 -16 288
WIRE 1328 304 1328 176
WIRE -416 336 -416 304
WIRE 704 336 704 272
WIRE 704 336 -416 336
WIRE -16 384 -16 288
WIRE 80 384 32 384
WIRE 208 384 208 288
WIRE 208 384 160 384
WIRE 704 384 704 336
WIRE 784 384 752 384
WIRE 896 384 896 272
WIRE 896 384 864 384
WIRE -16 528 -16 448
WIRE 384 528 -16 528
WIRE 704 528 704 448
WIRE 704 528 384 528
WIRE 1136 528 1136 272
WIRE 1136 528 704 528
WIRE 1328 528 1328 384
WIRE 1328 528 1136 528
WIRE 384 576 384 528
FLAG 384 576 0
SYMBOL Misc\\SCR 0 144 R180
SYMATTR InstName U1
SYMATTR Value TN6050HP-12
SYMBOL Misc\\SCR 720 144 R180
SYMATTR InstName U2
SYMATTR Value TN6050HP-12
SYMBOL Misc\\SCR 0 448 R180
SYMATTR InstName U3
SYMATTR Value TN6050HP-12
SYMBOL Misc\\SCR 720 448 R180
SYMATTR InstName U4
SYMATTR Value TN6050HP-12
SYMBOL res 1312 80 R0
SYMATTR InstName R1
SYMATTR Value 25
SYMBOL ind 1312 288 R0
SYMATTR InstName L1
SYMATTR Value 1m
SYMBOL voltage -416 208 R0
WINDOW 123 0 0 Left 2
WINDOW 39 0 0 Left 2
SYMATTR InstName V1
SYMATTR Value SINE(0 20 {freq} 0 0 0)
SYMBOL voltage 64 80 R270
WINDOW 0 32 56 VTop 2
WINDOW 3 -32 266 VBottom 2
WINDOW 123 0 0 Left 2
WINDOW 39 0 0 Left 2
SYMATTR InstName V2
SYMATTR Value PULSE(0 3 {30*conv} 1u 1u {duty} {1/{freq}})
SYMBOL voltage 784 80 R270
WINDOW 0 32 56 VTop 2
WINDOW 3 142 110 VBottom 2
SYMATTR InstName V3
SYMATTR Value PULSE(0 3 {30*conv+180*conv} 1u 1u {duty} {1/{freq}})
SYMBOL voltage 64 384 R270
WINDOW 0 32 56 VTop 2
WINDOW 3 -33 271 VBottom 2
SYMATTR InstName V4
SYMATTR Value PULSE(0 3 {30*conv+180*conv} 1u 1u {duty} {1/{freq}})
SYMBOL voltage 768 384 R270
WINDOW 0 32 56 VTop 2
WINDOW 3 -170 94 VBottom 2
SYMATTR InstName V5
SYMATTR Value PULSE(0 3 {30*conv} 1u 1u {duty} {1/{freq}})
SYMBOL diode 1152 272 R180
WINDOW 0 24 64 Left 2
WINDOW 3 24 0 Left 2
SYMATTR InstName D1
TEXT -80 -176 Left 2 !.param freq 50
TEXT -80 -136 Left 2 !.param div 2.66
TEXT -80 -96 Left 2 !.param perc 33.33
TEXT -80 -56 Left 2 !.param duty {(perc/freq)/100}
TEXT 224 -176 Left 2 !.param conv {0.02/360}
TEXT -424 432 Left 2 !.tran 200m
TEXT -496 776 Left 2 !.inc C:\\Program Files (x86)\\LTC\\LTspiceIV\\lib\\en.high-temperature_scr_pspice\\st_high-temperature_scr_pspice\\st_high-temperature_scr.lib
