Version 4
SHEET 1 1040 680
WIRE 432 0 208 0
WIRE 544 0 432 0
WIRE 752 0 544 0
WIRE 800 0 752 0
WIRE 976 0 800 0
WIRE 208 96 208 0
WIRE 304 96 256 96
WIRE 432 96 432 0
WIRE 432 96 384 96
WIRE 544 96 544 0
WIRE 640 96 592 96
WIRE 752 96 752 0
WIRE 752 96 720 96
WIRE 976 112 976 0
WIRE -144 144 -272 144
WIRE 208 208 208 160
WIRE 208 208 -32 208
WIRE -144 240 -144 144
WIRE -32 240 -32 208
WIRE 800 240 800 0
WIRE -272 256 -272 144
WIRE 976 320 976 192
WIRE -32 352 -32 320
WIRE 544 352 544 160
WIRE 544 352 -32 352
WIRE -272 400 -272 336
WIRE -144 400 -144 320
WIRE 208 400 208 208
WIRE 304 400 256 400
WIRE 544 400 544 352
WIRE 624 400 592 400
WIRE 208 544 208 464
WIRE 544 544 544 464
WIRE 544 544 208 544
WIRE 800 544 800 304
WIRE 800 544 544 544
WIRE 976 544 976 400
WIRE 976 544 800 544
FLAG -272 400 0
FLAG -144 400 0
SYMBOL Misc\\SCR 224 160 R180
SYMATTR InstName U1
SYMBOL Misc\\SCR 560 160 R180
SYMATTR InstName U2
SYMBOL Misc\\SCR 224 464 R180
SYMATTR InstName U3
SYMBOL Misc\\SCR 560 464 R180
SYMATTR InstName U4
SYMBOL diode 816 304 R180
WINDOW 0 24 64 Left 2
WINDOW 3 24 0 Left 2
SYMATTR InstName D1
SYMBOL res 960 96 R0
SYMATTR InstName R1
SYMATTR Value 25
SYMBOL ind 960 304 R0
SYMATTR InstName L1
SYMATTR Value 1m
SYMBOL ind2 -160 224 R0
SYMATTR InstName L2
SYMATTR Type ind
SYMBOL ind2 -16 336 R180
WINDOW 0 36 80 Left 2
WINDOW 3 36 40 Left 2
SYMATTR InstName L3
SYMATTR Type ind
SYMBOL voltage -272 240 R0
SYMATTR InstName V1
SYMBOL voltage 288 96 R270
WINDOW 0 32 56 VTop 2
WINDOW 3 -32 56 VBottom 2
SYMATTR InstName V2
SYMBOL voltage 624 96 R270
WINDOW 0 32 56 VTop 2
WINDOW 3 -32 56 VBottom 2
SYMATTR InstName V3
SYMBOL voltage 288 400 R270
WINDOW 0 32 56 VTop 2
WINDOW 3 -32 56 VBottom 2
SYMATTR InstName V4
SYMBOL voltage 608 400 R270
WINDOW 0 32 56 VTop 2
WINDOW 3 -32 56 VBottom 2
SYMATTR InstName V5
